.temp 25
.lib '/mnt/vol_NFS_rh003/Est_VLSI_II_2024/jquiros/tutorial/tarea1/Hspice/lp5mos/xt018.lib' tm
.lib '/mnt/vol_NFS_rh003/Est_VLSI_II_2024/jquiros/tutorial/tarea1/Hspice/lp5mos/param.lib' 3s
.lib '/mnt/vol_NFS_rh003/Est_VLSI_II_2024/jquiros/tutorial/tarea1/Hspice/lp5mos/config.lib' default




.PARAM
.OPTION POST
.GLOBAL gnd! vdd!

.SUBCKT inv vi vo
xm0 vo vi gnd! gnd! ne W=360.00n L=180.00n
xm1 vo vi vdd! vdd! pe W=1800.00n L=180.00n
.ENDS

XINV A Y INV
C0 Y gnd! 2E-15F

Vvdd vdd! 0 1.8v
Vgnd gnd! 0 0v

VIN A 0

.DC VIN 0 1.8 0.01
.measure DC Isc when V(out)=0.9v
.end
