
.option scale=90n
.option post

*Parametros
.temp 70
.param SUPPLY=1.8

.lib '/mnt/vol_NFS_rh003/Est_VLSI_II_2024/jquiros/tutorial/tarea1/Hspice/lp5mos/xt018.lib' tm
.lib '/mnt/vol_NFS_rh003/Est_VLSI_II_2024/jquiros/tutorial/tarea1/Hspice/lp5mos/param.lib' 3s
.lib '/mnt/vol_NFS_rh003/Est_VLSI_II_2024/jquiros/tutorial/tarea1/Hspice/lp5mos/config.lib' default

*----------------------------------------------------------------------

* Se invoca al nmos subcircuito
.subckt nmos g d N=4
xm0 d g gnd! gnd! ne w='N' l=2
+ as='N*5' ad='N*5' ps='2*N+10' pd='2*N+10'
.ends

*----------------------------------------------------------------------

* Circuito de prueba
.global gnd!

*nmos
Vgs  g gnd! SUPPLY
Vds  d gnd! 0 
X0   g d nmos

*----------------------------------------------------------------------

* Stimulus
.dc Vds 0 2  0.05 SWEEP Vgs 0 SUPPLY 0.3
.plot -I(Vds) V(d)
.probe
.end

